<routes>

        <vType accel="2.0" decel="6.0" id="Car_130" length="5.0" minGap="2.5" maxSpeed="13.0" sigma="0.9"
        lcStrategic="0.0" lcSpeedGain="0.9" lcKeepRight="100.01" />
        <vType accel="2.0" decel="6.0" id="Car_100" length="5.0" minGap="2.5" maxSpeed="10.0" sigma="0.9"
        lcStrategic="0.0" lcSpeedGain="0.9" lcKeepRight="100.01" />
        <vType accel="2.0" decel="6.0" id="Car_80" length="5.0" minGap="2.5" maxSpeed="8.0" sigma="0.9"
        lcStrategic="0.0" lcSpeedGain="0.9" lcKeepRight="100.01" />
        <vType accel="2.0" decel="6.0" id="Car_70" length="5.0" minGap="2.5" maxSpeed="7.0" sigma="0.9"
        lcStrategic="0.0" lcSpeedGain="0.9" lcKeepRight="100.01" />
        <vType accel="2.0" decel="6.0" id="ego-vehicle" length="4.1" minGap="2.0" maxSpeed="13.0" sigma="0.9"
        lcStrategic="0.0" lcSpeedGain="0.9" lcKeepRight="100.01"/>
        <route id="route01" edges="D8 L8 L9 L11 L1 D1"/>
        <route id="route02" edges="L8 L9 L11 L1 D1"/>
        <route id="route03" edges="L9 L11 L1 D1"/>
        <route id="route04" edges="L11 L1 D1"/>
        <route id="route05" edges="L1 D1"/> 
    <vehicle id="prius" type="ego-vehicle" route="route01" depart="1"  departSpeed="max" color="1,1,1"/>
    <vehicle id="car_1" type="Car_70" route="route05" depart="3" departLane="0" departSpeed="max" />
    <vehicle id="car_2" type="Car_130" route="route05" depart="3" departLane="0" departSpeed="max" />
    <vehicle id="car_3" type="Car_130" route="route04" depart="3" departLane="0" departSpeed="max" />
    <vehicle id="car_4" type="Car_130" route="route02" depart="7" departLane="1" departSpeed="max" />
    <vehicle id="car_5" type="Car_130" route="route02" depart="7" departLane="1" departSpeed="max" />
</routes>
