<?xml version="1.0" encoding="UTF-8"?>

<!-- generated on mar. 07 août 2018 19:27:24 CEST by Netedit Version 0.32.0
<?xml version="1.0" encoding="UTF-8"?>

<configuration xmlns:xsi="http://www.w3.org/2001/XMLSchema-instance" xsi:noNamespaceSchemaLocation="http://sumo.dlr.de/xsd/netconvertConfiguration.xsd">

    <input>
        <sumo-net-file value="/home/mario/catkin_ws/src/dmaking.net.xml"/>
    </input>

    <output>
        <output-file value="/home/mario/catkin_ws/src/hybrid_simulation/sumo_files/dmaking.net.xml"/>
    </output>

    <processing>
        <no-turnarounds value="true"/>
        <offset.disable-normalization value="true"/>
        <lefthand value="false"/>
        <junctions.corner-detail value="0"/>
        <rectangular-lane-cut value="false"/>
        <walkingareas value="false"/>
    </processing>

</configuration>
-->

<net version="0.27" xmlns:xsi="http://www.w3.org/2001/XMLSchema-instance" xsi:noNamespaceSchemaLocation="http://sumo.dlr.de/xsd/net_file.xsd">

    <location netOffset="0.00,0.00" convBoundary="-600.00,100.00,200.00,100.00" origBoundary="-10000000000.00,-10000000000.00,10000000000.00,10000000000.00" projParameter="!"/>

    <edge id=":1_0" function="internal">
        <lane id=":1_0_0" index="0" speed="13.89" length="0.10" shape="0.00,104.95 0.00,104.95"/>
        <lane id=":1_0_1" index="1" speed="13.89" length="0.10" shape="0.00,101.65 0.00,101.65"/>
    </edge>
    <edge id=":5_0" function="internal">
        <lane id=":5_0_0" index="0" speed="13.89" length="0.10" shape="125.00,104.95 125.00,104.95"/>
        <lane id=":5_0_1" index="1" speed="13.89" length="0.10" shape="125.00,101.65 125.00,101.65"/>
    </edge>
    <edge id=":6_0" function="internal">
        <lane id=":6_0_0" index="0" speed="13.89" length="0.10" shape="100.00,104.95 100.00,104.95"/>
        <lane id=":6_0_1" index="1" speed="13.89" length="0.10" shape="100.00,101.65 100.00,101.65"/>
    </edge>
    <edge id=":911_0" function="internal">
        <lane id=":911_0_0" index="0" speed="13.89" length="0.10" shape="-100.00,104.95 -100.00,104.95"/>
        <lane id=":911_0_1" index="1" speed="13.89" length="0.10" shape="-100.00,101.65 -100.00,101.65"/>
    </edge>
    <edge id=":914_0" function="internal">
        <lane id=":914_0_0" index="0" speed="13.89" length="0.10" shape="150.00,104.95 150.00,104.95"/>
        <lane id=":914_0_1" index="1" speed="13.89" length="0.10" shape="150.00,101.65 150.00,101.65"/>
    </edge>

    <edge id="D1" from="911" to="91" priority="1">
        <lane id="D1_0" index="0" speed="13.89" length="500.00" shape="-100.00,104.95 -600.00,104.95"/>
        <lane id="D1_1" index="1" speed="13.89" length="500.00" shape="-100.00,101.65 -600.00,101.65"/>
    </edge>
    <edge id="D8" from="94" to="914" priority="1">
        <lane id="D8_0" index="0" speed="13.89" length="50.00" shape="200.00,104.95 150.00,104.95"/>
        <lane id="D8_1" index="1" speed="13.89" length="50.00" shape="200.00,101.65 150.00,101.65"/>
    </edge>
    <edge id="L1" from="1" to="911" priority="1">
        <lane id="L1_0" index="0" speed="13.89" length="100.00" shape="0.00,104.95 -100.00,104.95"/>
        <lane id="L1_1" index="1" speed="13.89" length="100.00" shape="0.00,101.65 -100.00,101.65"/>
    </edge>
    <edge id="L11" from="6" to="1" priority="1">
        <lane id="L11_0" index="0" speed="13.89" length="100.00" shape="100.00,104.95 0.00,104.95"/>
        <lane id="L11_1" index="1" speed="13.89" length="100.00" shape="100.00,101.65 0.00,101.65"/>
    </edge>
    <edge id="L8" from="914" to="5" priority="1">
        <lane id="L8_0" index="0" speed="13.89" length="25.00" shape="150.00,104.95 125.00,104.95"/>
        <lane id="L8_1" index="1" speed="13.89" length="25.00" shape="150.00,101.65 125.00,101.65"/>
    </edge>
    <edge id="L9" from="5" to="6" priority="1">
        <lane id="L9_0" index="0" speed="13.89" length="25.00" shape="125.00,104.95 100.00,104.95"/>
        <lane id="L9_1" index="1" speed="13.89" length="25.00" shape="125.00,101.65 100.00,101.65"/>
    </edge>
    
    <junction id="1" type="priority" x="0.00" y="100.00" incLanes="L11_0 L11_1" intLanes=":1_0_0 :1_0_1" shape="0.00,106.55 0.00,100.05 0.00,106.55">
        <request index="0" response="00" foes="00" cont="0"/>
        <request index="1" response="00" foes="00" cont="0"/>
    </junction>
    <junction id="5" type="priority" x="125.00" y="100.00" incLanes="L8_0 L8_1" intLanes=":5_0_0 :5_0_1" shape="125.00,106.55 125.00,100.05 125.00,106.55">
        <request index="0" response="00" foes="00" cont="0"/>
        <request index="1" response="00" foes="00" cont="0"/>
    </junction>
    <junction id="6" type="priority" x="100.00" y="100.00" incLanes="L9_0 L9_1" intLanes=":6_0_0 :6_0_1" shape="100.00,106.55 100.00,100.05 100.00,106.55">
        <request index="0" response="00" foes="00" cont="0"/>
        <request index="1" response="00" foes="00" cont="0"/>
    </junction>
    <junction id="91" type="dead_end" x="-600.00" y="100.00" incLanes="D1_0 D1_1" intLanes="" shape="-600.00,106.55 -600.00,100.05"/>
    <junction id="911" type="priority" x="-100.00" y="100.00" incLanes="L1_0 L1_1" intLanes=":911_0_0 :911_0_1" shape="-100.00,106.55 -100.00,100.05 -100.00,106.55">
        <request index="0" response="00" foes="00" cont="0"/>
        <request index="1" response="00" foes="00" cont="0"/>
    </junction>
    <junction id="914" type="priority" x="150.00" y="100.00" incLanes="D8_0 D8_1" intLanes=":914_0_0 :914_0_1" shape="150.00,106.55 150.00,100.05 150.00,106.55">
        <request index="0" response="00" foes="00" cont="0"/>
        <request index="1" response="00" foes="00" cont="0"/>
    </junction>
    <junction id="94" type="dead_end" x="200.00" y="100.00" incLanes="" intLanes="" shape="200.00,100.05 200.00,106.55"/>

    <connection from="D8" to="L8" fromLane="0" toLane="0" via=":914_0_0" dir="s" state="M"/>
    <connection from="D8" to="L8" fromLane="1" toLane="1" via=":914_0_1" dir="s" state="M"/>
    <connection from="L1" to="D1" fromLane="0" toLane="0" via=":911_0_0" dir="s" state="M"/>
    <connection from="L1" to="D1" fromLane="1" toLane="1" via=":911_0_1" dir="s" state="M"/>
    <connection from="L11" to="L1" fromLane="0" toLane="0" via=":1_0_0" dir="s" state="M"/>
    <connection from="L11" to="L1" fromLane="1" toLane="1" via=":1_0_1" dir="s" state="M"/>
    <connection from="L8" to="L9" fromLane="0" toLane="0" via=":5_0_0" dir="s" state="M"/>
    <connection from="L8" to="L9" fromLane="1" toLane="1" via=":5_0_1" dir="s" state="M"/>
    <connection from="L9" to="L11" fromLane="0" toLane="0" via=":6_0_0" dir="s" state="M"/>
    <connection from="L9" to="L11" fromLane="1" toLane="1" via=":6_0_1" dir="s" state="M"/>

    <connection from=":1_0" to="L1" fromLane="0" toLane="0" dir="s" state="M"/>
    <connection from=":1_0" to="L1" fromLane="1" toLane="1" dir="s" state="M"/>
    <connection from=":5_0" to="L9" fromLane="0" toLane="0" dir="s" state="M"/>
    <connection from=":5_0" to="L9" fromLane="1" toLane="1" dir="s" state="M"/>
    <connection from=":6_0" to="L11" fromLane="0" toLane="0" dir="s" state="M"/>
    <connection from=":6_0" to="L11" fromLane="1" toLane="1" dir="s" state="M"/>
    <connection from=":911_0" to="D1" fromLane="0" toLane="0" dir="s" state="M"/>
    <connection from=":911_0" to="D1" fromLane="1" toLane="1" dir="s" state="M"/>
    <connection from=":914_0" to="L8" fromLane="0" toLane="0" dir="s" state="M"/>
    <connection from=":914_0" to="L8" fromLane="1" toLane="1" dir="s" state="M"/>

</net>
