<routes>

        <vType accel="2.0" decel="6.0" id="Car_130" length="5.0" minGap="2.5" maxSpeed="36.0" sigma="0.9"
        lcStrategic="0.0" lcSpeedGain="0.9" lcKeepRight="100.01" />
        <vType accel="2.0" decel="6.0" id="Car_110" length="5.0" minGap="2.5" maxSpeed="30.5" sigma="0.9"
        lcStrategic="0.0" lcSpeedGain="0.9" lcKeepRight="100.01" />
        <vType accel="2.0" decel="6.0" id="Car_90" length="5.0" minGap="2.5" maxSpeed="25.0" sigma="0.9"
        lcStrategic="0.0" lcSpeedGain="0.9" lcKeepRight="100.01" />
        <vType accel="2.0" decel="6.0" id="Car_70" length="5.0" minGap="2.5" maxSpeed="19.4" sigma="0.9"
        lcStrategic="0.0" lcSpeedGain="0.9" lcKeepRight="100.01" />
        <vType accel="2.0" decel="6.0" id="ego-vehicle" length="4.1" minGap="2.0" maxSpeed="36.0" sigma="0.9"
        lcStrategic="0.0" lcSpeedGain="0.9" lcKeepRight="100.01"/>
        <route id="route00" edges="e0-100 e100-200 e200-300 e300-400 e400-500 e500-3000"/>
        <route id="route01" edges="e100-200 e200-300 e300-400 e400-500 e500-3000"/>
        <route id="route02" edges="e200-300 e300-400 e400-500 e500-3000"/>
        <route id="route03" edges="e300-400 e400-500 e500-3000"/>
        <route id="route04" edges="e400-500 e500-3000"/>
	<route id="route05" edges="e500-3000"/> 
    <vehicle id="prius" type="ego-vehicle" route="route03" depart="1" departSpeed="max" color="1,1,1"/>
    <vehicle id="car_1" type="Car_110" route="route01" depart="1" departSpeed="max"/>
    <vehicle id="car_2" type="Car_130" route="route00" depart="1" departSpeed="max"/>
    <vehicle id="car_3" type="Car_90" route="route05" depart="1" />
</routes>
