<?xml version="1.0" encoding="UTF-8"?>

<!-- generated on mar. 10 sept. 2019 20:24:12 CEST by Eclipse SUMO netedit Version 1.2.0
<configuration xmlns:xsi="http://www.w3.org/2001/XMLSchema-instance" xsi:noNamespaceSchemaLocation="http://sumo.dlr.de/xsd/netconvertConfiguration.xsd">

    <input>
        <sumo-net-file value="icra.net.xml"/>
    </input>

    <output>
        <output-file value="icra.net.xml"/>
    </output>

    <processing>
        <geometry.max-grade.fix value="false"/>
        <offset.disable-normalization value="true"/>
        <lefthand value="false"/>
    </processing>

    <junctions>
        <no-turnarounds value="true"/>
        <junctions.corner-detail value="0"/>
        <junctions.limit-turn-speed value="-1"/>
        <rectangular-lane-cut value="false"/>
    </junctions>

    <pedestrian>
        <walkingareas value="false"/>
    </pedestrian>

</configuration>
-->

<net version="1.1" xmlns:xsi="http://www.w3.org/2001/XMLSchema-instance" xsi:noNamespaceSchemaLocation="http://sumo.dlr.de/xsd/net_file.xsd">

    <location netOffset="0.00,0.00" convBoundary="-270.00,100.00,150.00,120.00" origBoundary="-10000000000.00,-10000000000.00,10000000000.00,10000000000.00" projParameter="!"/>

    <edge id=":IN1_0" function="internal">
        <lane id=":IN1_0_0" index="0" speed="13.89" length="0.95" shape="100.00,121.60 99.72,121.59 99.53,121.56 99.35,121.48 99.11,121.33"/>
    </edge>
    <edge id=":M1_0" function="internal">
        <lane id=":M1_0_0" index="0" speed="13.89" length="3.90" shape="80.77,109.10 79.80,108.48 79.07,108.16 78.28,108.02 77.13,108.00"/>
    </edge>
    <edge id=":M1_1" function="internal">
        <lane id=":M1_1_0" index="0" speed="13.89" length="3.97" shape="81.10,104.80 77.13,104.80"/>
        <lane id=":M1_1_1" index="1" speed="13.89" length="3.97" shape="81.10,101.60 77.13,101.60"/>
    </edge>
    <edge id=":M2_0" function="internal">
        <lane id=":M2_0_0" index="0" speed="13.89" length="8.00" shape="34.00,104.80 26.00,104.80"/>
        <lane id=":M2_0_1" index="1" speed="13.89" length="8.00" shape="34.00,101.60 26.00,101.60"/>
    </edge>
    <edge id=":M3_0" function="internal">
        <lane id=":M3_0_0" index="0" speed="13.89" length="8.00" shape="-46.00,101.60 -54.00,101.60"/>
    </edge>
    <edge id=":M4_0" function="internal">
        <lane id=":M4_0_0" index="0" speed="13.89" length="8.00" shape="-96.00,101.60 -104.00,101.60"/>
    </edge>
    <edge id=":M5_0" function="internal">
        <lane id=":M5_0_0" index="0" speed="13.89" length="8.00" shape="-146.00,104.80 -154.00,104.80"/>
        <lane id=":M5_0_1" index="1" speed="13.89" length="8.00" shape="-146.00,101.60 -154.00,101.60"/>
    </edge>
    <edge id=":M6_0" function="internal">
        <lane id=":M6_0_0" index="0" speed="13.89" length="4.40" shape="-203.42,108.00 -204.53,108.10 -205.57,108.41 -206.51,108.92 -207.38,109.64"/>
    </edge>
    <edge id=":M6_1" function="internal">
        <lane id=":M6_1_0" index="0" speed="13.89" length="4.64" shape="-203.42,104.80 -208.06,104.80"/>
        <lane id=":M6_1_1" index="1" speed="13.89" length="4.64" shape="-203.42,101.60 -208.06,101.60"/>
    </edge>
    <edge id=":O0_0" function="internal">
        <lane id=":O0_0_0" index="0" speed="13.89" length="1.26" shape="-218.87,121.13 -219.12,121.34 -219.39,121.48 -219.68,121.57 -220.00,121.60"/>
    </edge>

    <edge id="EI0" from="IN0" to="IN1" priority="-1">
        <lane id="EI0_0" index="0" speed="13.89" length="50.00" shape="150.00,121.60 100.00,121.60"/>
    </edge>
    <edge id="EI1" from="IN1" to="M1" priority="-1">
        <lane id="EI1_0" index="0" speed="13.89" length="22.05" shape="99.11,121.33 80.77,109.10"/>
    </edge>
    <edge id="EM0" from="M0" to="M1" priority="-1">
        <lane id="EM0_0" index="0" speed="13.89" length="68.90" shape="150.00,104.80 81.10,104.80"/>
        <lane id="EM0_1" index="1" speed="13.89" length="68.90" shape="150.00,101.60 81.10,101.60"/>
    </edge>
    <edge id="EM1" from="M1" to="M2" priority="-1">
        <lane id="EM1_0" index="0" speed="13.89" length="43.13" shape="77.13,108.00 34.00,108.00"/>
        <lane id="EM1_1" index="1" speed="13.89" length="43.13" shape="77.13,104.80 34.00,104.80"/>
        <lane id="EM1_2" index="2" speed="13.89" length="43.13" shape="77.13,101.60 34.00,101.60"/>
    </edge>
    <edge id="EM2" from="M2" to="M3" priority="1">
        <lane id="EM2_0" index="0" speed="13.89" length="72.00" shape="26.00,104.80 -46.00,104.80"/>
        <lane id="EM2_1" index="1" speed="13.89" length="72.00" shape="26.00,101.60 -46.00,101.60"/>
    </edge>
    <edge id="EM3" from="M3" to="M4" priority="1">
        <lane id="EM3_0" index="0" speed="13.89" length="42.00" shape="-54.00,101.60 -96.00,101.60"/>
    </edge>
    <edge id="EM4" from="M4" to="M5" priority="-1">
        <lane id="EM4_0" index="0" speed="13.89" length="42.00" shape="-104.00,104.80 -146.00,104.80"/>
        <lane id="EM4_1" index="1" speed="13.89" length="42.00" shape="-104.00,101.60 -146.00,101.60"/>
    </edge>
    <edge id="EM5" from="M5" to="M6" priority="-1">
        <lane id="EM5_0" index="0" speed="13.89" length="49.42" shape="-154.00,108.00 -203.42,108.00"/>
        <lane id="EM5_1" index="1" speed="13.89" length="49.42" shape="-154.00,104.80 -203.42,104.80"/>
        <lane id="EM5_2" index="2" speed="13.89" length="49.42" shape="-154.00,101.60 -203.42,101.60"/>
    </edge>
    <edge id="EM6" from="M6" to="M7" priority="-1">
        <lane id="EM6_0" index="0" speed="13.89" length="61.94" shape="-208.06,104.80 -270.00,104.80"/>
        <lane id="EM6_1" index="1" speed="13.89" length="61.94" shape="-208.06,101.60 -270.00,101.60"/>
    </edge>
    <edge id="EO0" from="M6" to="O0" priority="-1">
        <lane id="EO0_0" index="0" speed="13.89" length="16.25" shape="-207.38,109.64 -218.87,121.13"/>
    </edge>
    <edge id="EO1" from="O0" to="O1" priority="-1">
        <lane id="EO1_0" index="0" speed="13.89" length="50.00" shape="-220.00,121.60 -270.00,121.60"/>
    </edge>

    <junction id="IN0" type="dead_end" x="150.00" y="120.00" incLanes="" intLanes="" shape="150.00,120.00 150.00,123.20"/>
    <junction id="IN1" type="priority" x="100.00" y="120.00" incLanes="EI0_0" intLanes=":IN1_0_0" shape="100.00,123.20 100.00,120.00 98.22,122.66">
        <request index="0" response="0" foes="0" cont="0"/>
    </junction>
    <junction id="M0" type="dead_end" x="150.00" y="100.00" incLanes="" intLanes="" shape="150.00,100.00 150.00,106.40"/>
    <junction id="M1" type="priority" x="70.00" y="100.00" incLanes="EI1_0 EM0_0 EM0_1" intLanes=":M1_0_0 :M1_1_0 :M1_1_1" shape="79.88,110.43 81.65,107.77 81.10,106.40 81.10,100.00 77.13,100.00 77.13,109.60">
        <request index="0" response="000" foes="000" cont="0"/>
        <request index="1" response="000" foes="000" cont="0"/>
        <request index="2" response="000" foes="000" cont="0"/>
    </junction>
    <junction id="M2" type="priority" x="30.00" y="100.00" incLanes="EM1_0 EM1_1 EM1_2" intLanes=":M2_0_0 :M2_0_1" shape="34.00,109.60 34.00,100.00 26.00,100.00 26.00,106.40">
        <request index="0" response="00" foes="00" cont="0"/>
        <request index="1" response="00" foes="00" cont="0"/>
    </junction>
    <junction id="M3" type="priority" x="-50.00" y="100.00" incLanes="EM2_0 EM2_1" intLanes=":M3_0_0" shape="-46.00,106.40 -46.00,100.00 -54.00,100.00 -54.00,103.20">
        <request index="0" response="0" foes="0" cont="0"/>
    </junction>
    <junction id="M4" type="priority" x="-100.00" y="100.00" incLanes="EM3_0" intLanes=":M4_0_0" shape="-96.00,103.20 -96.00,100.00 -104.00,100.00 -104.00,106.40">
        <request index="0" response="0" foes="0" cont="0"/>
    </junction>
    <junction id="M5" type="priority" x="-150.00" y="100.00" incLanes="EM4_0 EM4_1" intLanes=":M5_0_0 :M5_0_1" shape="-146.00,106.40 -146.00,100.00 -154.00,100.00 -154.00,109.60">
        <request index="0" response="00" foes="00" cont="0"/>
        <request index="1" response="00" foes="00" cont="0"/>
    </junction>
    <junction id="M6" type="priority" x="-200.00" y="100.00" incLanes="EM5_0 EM5_1 EM5_2" intLanes=":M6_0_0 :M6_1_0 :M6_1_1" shape="-203.42,109.60 -203.42,100.00 -208.06,100.00 -208.06,106.40 -208.51,108.51 -206.25,110.77">
        <request index="0" response="000" foes="000" cont="0"/>
        <request index="1" response="000" foes="000" cont="0"/>
        <request index="2" response="000" foes="000" cont="0"/>
    </junction>
    <junction id="M7" type="dead_end" x="-270.00" y="100.00" incLanes="EM6_0 EM6_1" intLanes="" shape="-270.00,106.40 -270.00,100.00"/>
    <junction id="O0" type="priority" x="-220.00" y="120.00" incLanes="EO0_0" intLanes=":O0_0_0" shape="-217.74,122.26 -220.00,120.00 -220.00,123.20">
        <request index="0" response="0" foes="0" cont="0"/>
    </junction>
    <junction id="O1" type="dead_end" x="-270.00" y="120.00" incLanes="EO1_0" intLanes="" shape="-270.00,123.20 -270.00,120.00"/>

    <connection from="EI0" to="EI1" fromLane="0" toLane="0" via=":IN1_0_0" dir="s" state="M"/>
    <connection from="EI1" to="EM1" fromLane="0" toLane="0" via=":M1_0_0" dir="s" state="M"/>
    <connection from="EM0" to="EM1" fromLane="0" toLane="1" via=":M1_1_0" dir="s" state="M"/>
    <connection from="EM0" to="EM1" fromLane="1" toLane="2" via=":M1_1_1" dir="s" state="M"/>
    <connection from="EM1" to="EM2" fromLane="1" toLane="0" via=":M2_0_0" dir="s" state="M"/>
    <connection from="EM1" to="EM2" fromLane="2" toLane="1" via=":M2_0_1" dir="s" state="M"/>
    <connection from="EM2" to="EM3" fromLane="1" toLane="0" via=":M3_0_0" dir="s" state="M"/>
    <connection from="EM3" to="EM4" fromLane="0" toLane="1" via=":M4_0_0" dir="s" state="M"/>
    <connection from="EM4" to="EM5" fromLane="0" toLane="1" via=":M5_0_0" dir="s" state="M"/>
    <connection from="EM4" to="EM5" fromLane="1" toLane="2" via=":M5_0_1" dir="s" state="M"/>
    <connection from="EM5" to="EO0" fromLane="0" toLane="0" via=":M6_0_0" dir="r" state="M"/>
    <connection from="EM5" to="EM6" fromLane="1" toLane="0" via=":M6_1_0" dir="s" state="M"/>
    <connection from="EM5" to="EM6" fromLane="2" toLane="1" via=":M6_1_1" dir="s" state="M"/>
    <connection from="EO0" to="EO1" fromLane="0" toLane="0" via=":O0_0_0" dir="l" state="M"/>

    <connection from=":IN1_0" to="EI1" fromLane="0" toLane="0" dir="s" state="M"/>
    <connection from=":M1_0" to="EM1" fromLane="0" toLane="0" dir="s" state="M"/>
    <connection from=":M1_1" to="EM1" fromLane="0" toLane="1" dir="s" state="M"/>
    <connection from=":M1_1" to="EM1" fromLane="1" toLane="2" dir="s" state="M"/>
    <connection from=":M2_0" to="EM2" fromLane="0" toLane="0" dir="s" state="M"/>
    <connection from=":M2_0" to="EM2" fromLane="1" toLane="1" dir="s" state="M"/>
    <connection from=":M3_0" to="EM3" fromLane="0" toLane="0" dir="s" state="M"/>
    <connection from=":M4_0" to="EM4" fromLane="0" toLane="1" dir="s" state="M"/>
    <connection from=":M5_0" to="EM5" fromLane="0" toLane="1" dir="s" state="M"/>
    <connection from=":M5_0" to="EM5" fromLane="1" toLane="2" dir="s" state="M"/>
    <connection from=":M6_0" to="EO0" fromLane="0" toLane="0" dir="r" state="M"/>
    <connection from=":M6_1" to="EM6" fromLane="0" toLane="0" dir="s" state="M"/>
    <connection from=":M6_1" to="EM6" fromLane="1" toLane="1" dir="s" state="M"/>
    <connection from=":O0_0" to="EO1" fromLane="0" toLane="0" dir="l" state="M"/>

</net>
