<routes>
        
        <vType accel="2.0" decel="6.0" id="Car1" length="5.0" minGap="2.5" maxSpeed="10.0" sigma="0.9"
        lcStrategic="0.0" lcSpeedGain="0.9" lcKeepRight="100.01" />
        <vType accel="2.0" decel="6.0" id="ego-vehicle" length="4.1" minGap="2.0" maxSpeed="10.0" sigma="0.9"
        lcStrategic="0.0" lcSpeedGain="0.9" lcKeepRight="100.01"/>
        <route id="route01" edges="D8 L8 L9 L11 L1 D1"/>
        <route id="route02" edges="D6 L6 L17 L11 L1 D1"/>
        <route id="routeZoe" edges="D10 D6 L6 L17 L11 L1 D1"/>
        <route id="route03" edges="N1 N2"/> 
    <vehicle id="right_0" type="Car1" route="route01" depart="2" />
    <vehicle id="left_1" type="Car1" route="route02" depart="2" />
    <vehicle id="right_2" type="Car1" route="route01" depart="3" />
    <vehicle id="left_3" type="Car1" route="route02" depart="3" />
    <vehicle id="left_4" type="Car1" route="route02" depart="4" />
    <vehicle id="right_5" type="Car1" route="route01" depart="5" />
    <vehicle id="left_6" type="Car1" route="route02" depart="5" />
    <vehicle id="right_7" type="Car1" route="route01" depart="6" />
    <vehicle id="left_8" type="Car1" route="route02" depart="6" />
    <vehicle id="right_9" type="Car1" route="route01" depart="7" />
    <vehicle id="left_10" type="Car1" route="route02" depart="7" />
    <vehicle id="right_11" type="Car1" route="route01" depart="8" />
    <vehicle id="left_12" type="Car1" route="route02" depart="8" />
    <vehicle id="right_13" type="Car1" route="route01" depart="9" />
    <vehicle id="left_14" type="Car1" route="route02" depart="9" />
    <vehicle id="left_15" type="Car1" route="route02" depart="10" />
    <vehicle id="broken_16" type="Car1" route="route01" depart="10"/>
    <vehicle id="right_17" type="Car1" route="route01" depart="11" />
    <vehicle id="right_18" type="Car1" route="route01" depart="12" />
    <vehicle id="left_19" type="Car1" route="route02" depart="12" />
    <vehicle id="left_20" type="Car1" route="route02" depart="13" />
    <vehicle id="right_21" type="Car1" route="route01" depart="14" />
    <vehicle id="left_22" type="Car1" route="route02" depart="14" />
    <vehicle id="right_23" type="Car1" route="route01" depart="15" />
    <vehicle id="left_24" type="Car1" route="route02" depart="15" />
    <vehicle id="right_25" type="Car1" route="route01" depart="16" />
    <vehicle id="left_26" type="Car1" route="route02" depart="16" />
    <vehicle id="right_27" type="Car1" route="route01" depart="17" />
    <vehicle id="left_28" type="Car1" route="route02" depart="17" />
    <vehicle id="broken_29" type="Car1" route="route02" depart="17"/>
    <vehicle id="right_30" type="Car1" route="route01" depart="18" />
    <vehicle id="left_31" type="Car1" route="route02" depart="18" />
    <vehicle id="right_32" type="Car1" route="route01" depart="19" />
    <vehicle id="left_33" type="Car1" route="route02" depart="19" />
    <vehicle id="right_34" type="Car1" route="route01" depart="20" />
    <vehicle id="left_35" type="Car1" route="route02" depart="20" />
    <vehicle id="right_36" type="Car1" route="route01" depart="21" />
    <vehicle id="left_37" type="Car1" route="route02" depart="21" />
    <vehicle id="left_38" type="Car1" route="route02" depart="22" />
    <vehicle id="right_39" type="Car1" route="route01" depart="23" />
    <vehicle id="right_40" type="Car1" route="route01" depart="24" />
    <vehicle id="left_41" type="Car1" route="route02" depart="24" />
    <vehicle id="broken_42" type="Car1" route="route01" depart="24"/>
    <vehicle id="right_43" type="Car1" route="route01" depart="25" />
    <vehicle id="left_44" type="Car1" route="route02" depart="25" />
    <vehicle id="left_45" type="Car1" route="route02" depart="26" />
    <vehicle id="right_46" type="Car1" route="route01" depart="27" />
    <vehicle id="right_47" type="Car1" route="route01" depart="28" />
    <vehicle id="left_48" type="Car1" route="route02" depart="28" />
    <vehicle id="right_49" type="Car1" route="route01" depart="29" />
    <vehicle id="left_50" type="Car1" route="route02" depart="29" />
    <vehicle id="right_51" type="Car1" route="route01" depart="30" />
    <vehicle id="left_52" type="Car1" route="route02" depart="30" />
    <vehicle id="prius" type="ego-vehicle" route="routeZoe" depart="30" color="1,1,1"/>
    <vehicle id="right_54" type="Car1" route="route01" depart="31" />
    <vehicle id="left_55" type="Car1" route="route02" depart="31" />
    <vehicle id="broken_56" type="Car1" route="route02" depart="31"/>
    <vehicle id="right_57" type="Car1" route="route01" depart="32" />
    <vehicle id="left_58" type="Car1" route="route02" depart="32" />
    <vehicle id="right_59" type="Car1" route="route01" depart="33" />
    <vehicle id="left_60" type="Car1" route="route02" depart="33" />
    <vehicle id="left_61" type="Car1" route="route02" depart="34" />
    <vehicle id="left_62" type="Car1" route="route02" depart="35" />
    <vehicle id="right_63" type="Car1" route="route01" depart="36" />
    <vehicle id="left_64" type="Car1" route="route02" depart="36" />
    <vehicle id="right_65" type="Car1" route="route01" depart="37" />
    <vehicle id="left_66" type="Car1" route="route02" depart="37" />
    <vehicle id="right_67" type="Car1" route="route01" depart="38" />
    <vehicle id="right_68" type="Car1" route="route01" depart="39" />
    <vehicle id="left_69" type="Car1" route="route02" depart="39" />
    <vehicle id="right_70" type="Car1" route="route01" depart="41" />
    <vehicle id="left_71" type="Car1" route="route02" depart="41" />
    <vehicle id="right_72" type="Car1" route="route01" depart="42" />
    <vehicle id="left_73" type="Car1" route="route02" depart="42" />
    <vehicle id="right_74" type="Car1" route="route01" depart="43" />
    <vehicle id="left_75" type="Car1" route="route02" depart="43" />
    <vehicle id="right_76" type="Car1" route="route01" depart="44" />
    <vehicle id="right_77" type="Car1" route="route01" depart="45" />
    <vehicle id="left_78" type="Car1" route="route02" depart="45" />
    <vehicle id="right_79" type="Car1" route="route01" depart="47" />
    <vehicle id="left_80" type="Car1" route="route02" depart="47" />
    <vehicle id="right_81" type="Car1" route="route01" depart="48" />
    <vehicle id="left_82" type="Car1" route="route02" depart="48" />
    <vehicle id="right_83" type="Car1" route="route01" depart="49" />
    <vehicle id="left_84" type="Car1" route="route02" depart="49" />
    <vehicle id="right_85" type="Car1" route="route01" depart="50" />
    <vehicle id="left_86" type="Car1" route="route02" depart="50" />
    <vehicle id="right_87" type="Car1" route="route01" depart="51" />
    <vehicle id="left_88" type="Car1" route="route02" depart="51" />
    <vehicle id="left_89" type="Car1" route="route02" depart="52" />
    <vehicle id="right_90" type="Car1" route="route01" depart="53" />
    <vehicle id="left_91" type="Car1" route="route02" depart="53" />
    <vehicle id="right_92" type="Car1" route="route01" depart="54" />
    <vehicle id="left_93" type="Car1" route="route02" depart="54" />
    <vehicle id="right_94" type="Car1" route="route01" depart="55" />
    <vehicle id="left_95" type="Car1" route="route02" depart="55" />
    <vehicle id="right_96" type="Car1" route="route01" depart="56" />
    <vehicle id="right_97" type="Car1" route="route01" depart="57" />
    <vehicle id="left_98" type="Car1" route="route02" depart="57" />
    <vehicle id="right_99" type="Car1" route="route01" depart="58" />
    <vehicle id="left_100" type="Car1" route="route02" depart="58" />
    <vehicle id="right_101" type="Car1" route="route01" depart="59" />
    <vehicle id="left_102" type="Car1" route="route02" depart="59" />
    <vehicle id="right_103" type="Car1" route="route01" depart="60" />
    <vehicle id="left_104" type="Car1" route="route02" depart="60" />
    <vehicle id="right_105" type="Car1" route="route01" depart="61" />
    <vehicle id="left_106" type="Car1" route="route02" depart="61" />
    <vehicle id="right_107" type="Car1" route="route01" depart="62" />
    <vehicle id="left_108" type="Car1" route="route02" depart="62" />
    <vehicle id="right_109" type="Car1" route="route01" depart="63" />
    <vehicle id="left_110" type="Car1" route="route02" depart="63" />
    <vehicle id="left_111" type="Car1" route="route02" depart="64" />
    <vehicle id="right_112" type="Car1" route="route01" depart="65" />
    <vehicle id="left_113" type="Car1" route="route02" depart="65" />
    <vehicle id="right_114" type="Car1" route="route01" depart="66" />
    <vehicle id="left_115" type="Car1" route="route02" depart="67" />
    <vehicle id="right_116" type="Car1" route="route01" depart="70" />
    <vehicle id="left_117" type="Car1" route="route02" depart="70" />
    <vehicle id="right_118" type="Car1" route="route01" depart="71" />
    <vehicle id="left_119" type="Car1" route="route02" depart="71" />
    <vehicle id="right_120" type="Car1" route="route01" depart="72" />
    <vehicle id="left_121" type="Car1" route="route02" depart="72" />
    <vehicle id="right_122" type="Car1" route="route01" depart="73" />
    <vehicle id="right_123" type="Car1" route="route01" depart="74" />
    <vehicle id="left_124" type="Car1" route="route02" depart="74" />
    <vehicle id="right_125" type="Car1" route="route01" depart="75" />
    <vehicle id="right_126" type="Car1" route="route01" depart="76" />
    <vehicle id="left_127" type="Car1" route="route02" depart="76" />
    <vehicle id="right_128" type="Car1" route="route01" depart="77" />
    <vehicle id="left_129" type="Car1" route="route02" depart="77" />
    <vehicle id="right_130" type="Car1" route="route01" depart="78" />
    <vehicle id="right_131" type="Car1" route="route01" depart="79" />
    <vehicle id="left_132" type="Car1" route="route02" depart="79" />
    <vehicle id="right_133" type="Car1" route="route01" depart="80" />
    <vehicle id="left_134" type="Car1" route="route02" depart="80" />
    <vehicle id="right_135" type="Car1" route="route01" depart="81" />
    <vehicle id="left_136" type="Car1" route="route02" depart="81" />
    <vehicle id="right_137" type="Car1" route="route01" depart="82" />
    <vehicle id="left_138" type="Car1" route="route02" depart="82" />
    <vehicle id="left_139" type="Car1" route="route02" depart="83" />
    <vehicle id="right_140" type="Car1" route="route01" depart="84" />
    <vehicle id="left_141" type="Car1" route="route02" depart="84" />
    <vehicle id="right_142" type="Car1" route="route01" depart="85" />
    <vehicle id="left_143" type="Car1" route="route02" depart="85" />
    <vehicle id="right_144" type="Car1" route="route01" depart="86" />
    <vehicle id="left_145" type="Car1" route="route02" depart="86" />
    <vehicle id="left_146" type="Car1" route="route02" depart="87" />
    <vehicle id="right_147" type="Car1" route="route01" depart="88" />
    <vehicle id="left_148" type="Car1" route="route02" depart="89" />
    <vehicle id="left_149" type="Car1" route="route02" depart="90" />
    <vehicle id="left_150" type="Car1" route="route02" depart="91" />
    <vehicle id="right_151" type="Car1" route="route01" depart="92" />
    <vehicle id="left_152" type="Car1" route="route02" depart="92" />
    <vehicle id="left_153" type="Car1" route="route02" depart="93" />
    <vehicle id="right_154" type="Car1" route="route01" depart="94" />
    <vehicle id="left_155" type="Car1" route="route02" depart="94" />
    <vehicle id="right_156" type="Car1" route="route01" depart="95" />
    <vehicle id="left_157" type="Car1" route="route02" depart="95" />
    <vehicle id="right_158" type="Car1" route="route01" depart="96" />
    <vehicle id="left_159" type="Car1" route="route02" depart="96" />
    <vehicle id="right_160" type="Car1" route="route01" depart="98" />
    <vehicle id="left_161" type="Car1" route="route02" depart="98" />
    <vehicle id="right_162" type="Car1" route="route01" depart="99" />
    <vehicle id="left_163" type="Car1" route="route02" depart="99" />
    <vehicle id="right_164" type="Car1" route="route01" depart="100" />
    <vehicle id="left_165" type="Car1" route="route02" depart="100" />
    <vehicle id="right_166" type="Car1" route="route01" depart="101" />
    <vehicle id="left_167" type="Car1" route="route02" depart="101" />
    <vehicle id="left_168" type="Car1" route="route02" depart="102" />
    <vehicle id="right_169" type="Car1" route="route01" depart="103" />
    <vehicle id="left_170" type="Car1" route="route02" depart="103" />
    <vehicle id="right_171" type="Car1" route="route01" depart="104" />
    <vehicle id="right_172" type="Car1" route="route01" depart="106" />
    <vehicle id="left_173" type="Car1" route="route02" depart="106" />
    <vehicle id="left_174" type="Car1" route="route02" depart="107" />
    <vehicle id="right_175" type="Car1" route="route01" depart="108" />
    <vehicle id="left_176" type="Car1" route="route02" depart="109" />
    <vehicle id="right_177" type="Car1" route="route01" depart="110" />
    <vehicle id="left_178" type="Car1" route="route02" depart="110" />
    <vehicle id="left_179" type="Car1" route="route02" depart="111" />
    <vehicle id="right_180" type="Car1" route="route01" depart="112" />
    <vehicle id="left_181" type="Car1" route="route02" depart="112" />
    <vehicle id="right_182" type="Car1" route="route01" depart="113" />
    <vehicle id="right_183" type="Car1" route="route01" depart="114" />
    <vehicle id="left_184" type="Car1" route="route02" depart="114" />
    <vehicle id="right_185" type="Car1" route="route01" depart="115" />
    <vehicle id="left_186" type="Car1" route="route02" depart="115" />
    <vehicle id="right_187" type="Car1" route="route01" depart="116" />
    <vehicle id="left_188" type="Car1" route="route02" depart="116" />
    <vehicle id="right_189" type="Car1" route="route01" depart="118" />
    <vehicle id="left_190" type="Car1" route="route02" depart="118" />
    <vehicle id="right_191" type="Car1" route="route01" depart="119" />
    <vehicle id="left_192" type="Car1" route="route02" depart="120" />
    <vehicle id="right_193" type="Car1" route="route01" depart="121" />
    <vehicle id="left_194" type="Car1" route="route02" depart="121" />
    <vehicle id="right_195" type="Car1" route="route01" depart="122" />
    <vehicle id="left_196" type="Car1" route="route02" depart="122" />
    <vehicle id="right_197" type="Car1" route="route01" depart="123" />
    <vehicle id="left_198" type="Car1" route="route02" depart="123" />
    <vehicle id="right_199" type="Car1" route="route01" depart="124" />
    <vehicle id="left_200" type="Car1" route="route02" depart="124" />
    <vehicle id="left_201" type="Car1" route="route02" depart="125" />
    <vehicle id="right_202" type="Car1" route="route01" depart="126" />
    <vehicle id="left_203" type="Car1" route="route02" depart="126" />
    <vehicle id="right_204" type="Car1" route="route01" depart="127" />
    <vehicle id="left_205" type="Car1" route="route02" depart="127" />
    <vehicle id="right_206" type="Car1" route="route01" depart="128" />
    <vehicle id="right_207" type="Car1" route="route01" depart="129" />
    <vehicle id="left_208" type="Car1" route="route02" depart="129" />
    <vehicle id="right_209" type="Car1" route="route01" depart="130" />
    <vehicle id="left_210" type="Car1" route="route02" depart="130" />
    <vehicle id="right_211" type="Car1" route="route01" depart="131" />
    <vehicle id="left_212" type="Car1" route="route02" depart="132" />
    <vehicle id="right_213" type="Car1" route="route01" depart="133" />
    <vehicle id="left_214" type="Car1" route="route02" depart="133" />
    <vehicle id="right_215" type="Car1" route="route01" depart="134" />
    <vehicle id="left_216" type="Car1" route="route02" depart="134" />
    <vehicle id="right_217" type="Car1" route="route01" depart="135" />
    <vehicle id="left_218" type="Car1" route="route02" depart="135" />
    <vehicle id="right_219" type="Car1" route="route01" depart="136" />
    <vehicle id="right_220" type="Car1" route="route01" depart="137" />
    <vehicle id="left_221" type="Car1" route="route02" depart="137" />
    <vehicle id="right_222" type="Car1" route="route01" depart="138" />
    <vehicle id="left_223" type="Car1" route="route02" depart="138" />
    <vehicle id="right_224" type="Car1" route="route01" depart="139" />
    <vehicle id="left_225" type="Car1" route="route02" depart="139" />
    <vehicle id="right_226" type="Car1" route="route01" depart="140" />
    <vehicle id="left_227" type="Car1" route="route02" depart="140" />
    <vehicle id="right_228" type="Car1" route="route01" depart="141" />
    <vehicle id="right_229" type="Car1" route="route01" depart="142" />
    <vehicle id="left_230" type="Car1" route="route02" depart="142" />
    <vehicle id="right_231" type="Car1" route="route01" depart="143" />
    <vehicle id="left_232" type="Car1" route="route02" depart="143" />
    <vehicle id="right_233" type="Car1" route="route01" depart="144" />
    <vehicle id="left_234" type="Car1" route="route02" depart="144" />
    <vehicle id="right_235" type="Car1" route="route01" depart="145" />
    <vehicle id="left_236" type="Car1" route="route02" depart="145" />
    <vehicle id="right_237" type="Car1" route="route01" depart="146" />
    <vehicle id="right_238" type="Car1" route="route01" depart="147" />
    <vehicle id="left_239" type="Car1" route="route02" depart="147" />
    <vehicle id="right_240" type="Car1" route="route01" depart="148" />
    <vehicle id="left_241" type="Car1" route="route02" depart="148" />
    <vehicle id="left_242" type="Car1" route="route02" depart="149" />
    <vehicle id="left_243" type="Car1" route="route02" depart="150" />
    <vehicle id="right_244" type="Car1" route="route01" depart="151" />
    <vehicle id="left_245" type="Car1" route="route02" depart="151" />
    <vehicle id="left_246" type="Car1" route="route02" depart="152" />
    <vehicle id="right_247" type="Car1" route="route01" depart="153" />
    <vehicle id="left_248" type="Car1" route="route02" depart="153" />
    <vehicle id="right_249" type="Car1" route="route01" depart="154" />
    <vehicle id="left_250" type="Car1" route="route02" depart="154" />
    <vehicle id="right_251" type="Car1" route="route01" depart="155" />
    <vehicle id="left_252" type="Car1" route="route02" depart="155" />
    <vehicle id="right_253" type="Car1" route="route01" depart="156" />
    <vehicle id="left_254" type="Car1" route="route02" depart="156" />
    <vehicle id="right_255" type="Car1" route="route01" depart="157" />
    <vehicle id="left_256" type="Car1" route="route02" depart="157" />
    <vehicle id="right_257" type="Car1" route="route01" depart="158" />
    <vehicle id="left_258" type="Car1" route="route02" depart="158" />
    <vehicle id="right_259" type="Car1" route="route01" depart="159" />
    <vehicle id="left_260" type="Car1" route="route02" depart="159" />
    <vehicle id="right_261" type="Car1" route="route01" depart="160" />
    <vehicle id="right_262" type="Car1" route="route01" depart="161" />
    <vehicle id="right_263" type="Car1" route="route01" depart="162" />
    <vehicle id="left_264" type="Car1" route="route02" depart="162" />
    <vehicle id="right_265" type="Car1" route="route01" depart="163" />
    <vehicle id="right_266" type="Car1" route="route01" depart="164" />
    <vehicle id="left_267" type="Car1" route="route02" depart="164" />
    <vehicle id="right_268" type="Car1" route="route01" depart="165" />
    <vehicle id="left_269" type="Car1" route="route02" depart="165" />
    <vehicle id="right_270" type="Car1" route="route01" depart="166" />
    <vehicle id="left_271" type="Car1" route="route02" depart="166" />
    <vehicle id="right_272" type="Car1" route="route01" depart="167" />
    <vehicle id="left_273" type="Car1" route="route02" depart="167" />
    <vehicle id="right_274" type="Car1" route="route01" depart="168" />
    <vehicle id="left_275" type="Car1" route="route02" depart="168" />
    <vehicle id="right_276" type="Car1" route="route01" depart="169" />
    <vehicle id="left_277" type="Car1" route="route02" depart="169" />
    <vehicle id="right_278" type="Car1" route="route01" depart="170" />
    <vehicle id="left_279" type="Car1" route="route02" depart="170" />
    <vehicle id="right_280" type="Car1" route="route01" depart="171" />
    <vehicle id="left_281" type="Car1" route="route02" depart="171" />
    <vehicle id="right_282" type="Car1" route="route01" depart="172" />
    <vehicle id="left_283" type="Car1" route="route02" depart="172" />
    <vehicle id="right_284" type="Car1" route="route01" depart="173" />
    <vehicle id="left_285" type="Car1" route="route02" depart="173" />
    <vehicle id="right_286" type="Car1" route="route01" depart="174" />
    <vehicle id="left_287" type="Car1" route="route02" depart="174" />
    <vehicle id="right_288" type="Car1" route="route01" depart="175" />
    <vehicle id="right_289" type="Car1" route="route01" depart="176" />
    <vehicle id="left_290" type="Car1" route="route02" depart="176" />
    <vehicle id="right_291" type="Car1" route="route01" depart="177" />
    <vehicle id="right_292" type="Car1" route="route01" depart="178" />
    <vehicle id="left_293" type="Car1" route="route02" depart="178" />
    <vehicle id="right_294" type="Car1" route="route01" depart="179" />
    <vehicle id="left_295" type="Car1" route="route02" depart="179" />
    <vehicle id="right_296" type="Car1" route="route01" depart="180" />
    <vehicle id="left_297" type="Car1" route="route02" depart="180" />
    <vehicle id="right_298" type="Car1" route="route01" depart="181" />
    <vehicle id="left_299" type="Car1" route="route02" depart="181" />
    <vehicle id="right_300" type="Car1" route="route01" depart="182" />
    <vehicle id="right_301" type="Car1" route="route01" depart="183" />
    <vehicle id="left_302" type="Car1" route="route02" depart="183" />
    <vehicle id="left_303" type="Car1" route="route02" depart="184" />
    <vehicle id="right_304" type="Car1" route="route01" depart="185" />
    <vehicle id="left_305" type="Car1" route="route02" depart="185" />
    <vehicle id="right_306" type="Car1" route="route01" depart="186" />
    <vehicle id="left_307" type="Car1" route="route02" depart="186" />
    <vehicle id="right_308" type="Car1" route="route01" depart="187" />
    <vehicle id="left_309" type="Car1" route="route02" depart="187" />
    <vehicle id="right_310" type="Car1" route="route01" depart="188" />
    <vehicle id="left_311" type="Car1" route="route02" depart="188" />
    <vehicle id="right_312" type="Car1" route="route01" depart="189" />
    <vehicle id="left_313" type="Car1" route="route02" depart="189" />
    <vehicle id="left_314" type="Car1" route="route02" depart="190" />
    <vehicle id="left_315" type="Car1" route="route02" depart="191" />
    <vehicle id="right_316" type="Car1" route="route01" depart="192" />
    <vehicle id="left_317" type="Car1" route="route02" depart="192" />
    <vehicle id="left_318" type="Car1" route="route02" depart="193" />
    <vehicle id="right_319" type="Car1" route="route01" depart="194" />
    <vehicle id="left_320" type="Car1" route="route02" depart="194" />
    <vehicle id="right_321" type="Car1" route="route01" depart="195" />
    <vehicle id="left_322" type="Car1" route="route02" depart="195" />
    <vehicle id="right_323" type="Car1" route="route01" depart="196" />
    <vehicle id="left_324" type="Car1" route="route02" depart="196" />
    <vehicle id="right_325" type="Car1" route="route01" depart="197" />
    <vehicle id="left_326" type="Car1" route="route02" depart="197" />
    <vehicle id="right_327" type="Car1" route="route01" depart="198" />
    <vehicle id="left_328" type="Car1" route="route02" depart="198" />
    <vehicle id="right_329" type="Car1" route="route01" depart="199" />
    <vehicle id="left_330" type="Car1" route="route02" depart="199" />
</routes>
